Version 4
SHEET 1 1236 680
WIRE -368 -608 -736 -608
WIRE -816 -512 -1408 -512
WIRE -736 -512 -736 -608
WIRE -736 -512 -816 -512
WIRE -656 -512 -736 -512
WIRE -448 -512 -560 -512
WIRE -272 -512 -448 -512
WIRE 144 -512 -272 -512
WIRE -560 -448 -608 -448
WIRE -448 -448 -448 -512
WIRE -448 -448 -480 -448
WIRE -736 -432 -736 -512
WIRE -608 -416 -608 -448
WIRE -112 -368 -176 -368
WIRE 144 -368 144 -512
WIRE 144 -368 -32 -368
WIRE -736 -304 -736 -352
WIRE -736 -304 -800 -304
WIRE -592 -304 -736 -304
WIRE -496 -304 -592 -304
WIRE -1408 -272 -1408 -512
WIRE -1408 -272 -1456 -272
WIRE -1264 -272 -1312 -272
WIRE -368 -240 -368 -608
WIRE -368 -240 -448 -240
WIRE -1408 -208 -1408 -272
WIRE -544 -208 -544 -240
WIRE -1264 -160 -1264 -272
WIRE -864 -160 -864 -256
WIRE -864 -160 -1264 -160
WIRE -560 -160 -608 -160
WIRE -304 -160 -464 -160
WIRE 144 -160 144 -368
WIRE 144 -160 -240 -160
WIRE -608 -112 -608 -160
WIRE -608 -112 -864 -112
WIRE -1408 -96 -1408 -128
WIRE -1360 -96 -1360 -208
WIRE -1360 -96 -1408 -96
WIRE -768 -96 -1360 -96
WIRE -768 -80 -768 -96
WIRE -768 -80 -800 -80
WIRE -864 -32 -864 -112
WIRE -464 0 -464 -160
WIRE -144 0 -192 0
WIRE 0 0 -144 0
WIRE -1456 16 -1456 -272
WIRE -1360 48 -1360 -96
WIRE 32 48 -64 48
WIRE 192 48 32 48
WIRE 432 48 384 48
WIRE 544 48 496 48
WIRE -1424 96 -1456 96
WIRE -464 128 -464 80
WIRE -192 128 -192 64
WIRE -192 128 -464 128
WIRE -160 128 -160 48
WIRE -160 128 -192 128
WIRE 144 128 144 -160
WIRE 192 128 144 128
WIRE 432 128 384 128
WIRE 544 128 544 48
WIRE 624 128 544 128
WIRE 720 128 624 128
WIRE 848 128 720 128
WIRE 960 128 848 128
WIRE 1168 128 960 128
WIRE -192 192 -192 128
WIRE -160 208 -160 128
WIRE 0 208 0 0
WIRE 0 208 -64 208
WIRE 192 208 0 208
WIRE 432 208 384 208
WIRE 544 208 544 128
WIRE 544 208 496 208
WIRE -144 256 -192 256
WIRE 32 256 32 48
WIRE 32 256 -144 256
WIRE 960 304 960 128
WIRE 720 336 720 128
WIRE -1360 352 -1360 144
WIRE 352 352 -1360 352
WIRE 624 352 624 128
WIRE 624 352 544 352
WIRE 352 416 -576 416
WIRE 624 448 544 448
WIRE 848 448 848 128
WIRE 720 496 720 416
WIRE 720 496 688 496
WIRE 960 496 960 384
WIRE 960 496 912 496
WIRE 960 512 960 496
WIRE 848 544 624 544
WIRE 624 560 624 544
WIRE 720 576 720 496
WIRE 960 608 960 576
FLAG 432 128 0
FLAG 480 128 0
FLAG 544 48 V5
FLAG -176 -368 0
FLAG 144 -512 VPOE
FLAG -272 -448 0
FLAG -688 -160 0
FLAG -800 16 0
FLAG 960 128 out
FLAG 1168 208 0
FLAG -576 416 0
FLAG -1456 176 0
FLAG -608 -48 0
FLAG -608 -352 0
FLAG 960 608 0
FLAG 720 656 0
FLAG 624 640 0
FLAG -816 -448 0
FLAG -800 -208 0
FLAG -640 -240 0
FLAG -944 -256 0
SYMBOL ind2 176 32 R0
SYMATTR InstName L1
SYMATTR Value 18µ
SYMATTR Type ind
SYMATTR SpiceLine Rser=90m
SYMBOL ind2 176 112 R0
SYMATTR InstName L2
SYMATTR Value 18µ
SYMATTR Type ind
SYMATTR SpiceLine Rser=90m
SYMBOL ind2 400 32 M0
SYMATTR InstName L3
SYMATTR Value 21.6µ
SYMATTR Type ind
SYMATTR SpiceLine Rser=90m
SYMBOL ind2 400 112 M0
SYMATTR InstName L4
SYMATTR Value 21.6µ
SYMATTR Type ind
SYMATTR SpiceLine Rser=90m
SYMBOL schottky 432 64 R270
WINDOW 0 32 32 VTop 2
WINDOW 3 0 32 VBottom 2
SYMATTR InstName D1
SYMATTR Value MBR0520L
SYMATTR Description Diode
SYMATTR Type diode
SYMBOL schottky 432 224 R270
WINDOW 0 32 32 VTop 2
WINDOW 3 0 32 VBottom 2
SYMATTR InstName D2
SYMATTR Value MBR0520L
SYMATTR Description Diode
SYMATTR Type diode
SYMBOL cap 544 112 R90
WINDOW 0 0 32 VBottom 2
WINDOW 3 32 32 VTop 2
SYMATTR InstName C1
SYMATTR Value 100µ
SYMBOL voltage -16 -368 R90
WINDOW 0 -32 56 VBottom 2
WINDOW 3 32 56 VTop 2
WINDOW 123 0 0 Left 0
WINDOW 39 -4 56 VBottom 2
SYMATTR InstName V1
SYMATTR Value 48
SYMATTR SpiceLine Rser=1
SYMBOL diode -304 -144 R270
WINDOW 0 32 32 VTop 2
WINDOW 3 0 32 VBottom 2
SYMATTR InstName D4
SYMATTR Value MURS320
SYMBOL cap -288 -512 R0
SYMATTR InstName C3
SYMATTR Value 100µ
SYMBOL res -464 -464 R90
WINDOW 0 0 56 VBottom 2
WINDOW 3 32 56 VTop 2
SYMATTR InstName R2
SYMATTR Value 150k
SYMBOL nmos -464 -208 R90
SYMATTR InstName M1
SYMATTR Value BSC340N08NS3
SYMBOL zener -624 -352 M180
WINDOW 0 24 64 Left 2
WINDOW 3 24 0 Left 2
SYMATTR InstName D7
SYMATTR Value BZX84C15L
SYMATTR Description Diode
SYMATTR Type diode
SYMBOL res -592 -176 R90
WINDOW 0 0 56 VBottom 2
WINDOW 3 32 56 VTop 2
SYMATTR InstName R6
SYMATTR Value 750m
SYMBOL npn -864 -80 R0
SYMATTR InstName Q5
SYMATTR Value 2N3904
SYMBOL nmos -64 0 R90
SYMATTR InstName M2
SYMATTR Value BSO220N03MD
SYMBOL nmos -64 256 M270
SYMATTR InstName M3
SYMATTR Value BSO220N03MD
SYMBOL ind -448 -16 M0
SYMATTR InstName L6
SYMATTR Value 100µ
SYMATTR SpiceLine Rser=290m
SYMBOL res 1152 112 R0
SYMATTR InstName R5
SYMATTR Value 10
SYMBOL Optos\\4N25A 448 416 M0
SYMATTR InstName U1
SYMBOL cap -832 -512 R0
SYMATTR InstName C5
SYMATTR Value 100n
SYMBOL pnp -1312 -208 M270
SYMATTR InstName Q2
SYMATTR Value 2N3906
SYMBOL res -1392 -224 M0
SYMATTR InstName R1
SYMATTR Value 10k
SYMBOL npn -1424 48 R0
SYMATTR InstName Q1
SYMATTR Value 2N3904
SYMBOL res -1440 112 R180
WINDOW 0 36 76 Left 2
WINDOW 3 36 40 Left 2
SYMATTR InstName R7
SYMATTR Value 10k
SYMBOL res -1440 192 R180
WINDOW 0 36 76 Left 2
WINDOW 3 36 40 Left 2
SYMATTR InstName R8
SYMATTR Value 10k
SYMBOL cap -624 -112 R0
SYMATTR InstName C2
SYMATTR Value 100n
SYMBOL npn -560 -448 M270
SYMATTR InstName Q4
SYMATTR Value 2N5550
SYMBOL zener -176 192 M0
SYMATTR InstName D6
SYMATTR Value BZX84C12L
SYMATTR Description Diode
SYMATTR Type diode
SYMBOL zener -176 64 R180
WINDOW 0 24 64 Left 2
WINDOW 3 24 0 Left 2
SYMATTR InstName D9
SYMATTR Value BZX84C12L
SYMATTR Description Diode
SYMATTR Type diode
SYMBOL References\\LT1009 960 544 R0
SYMATTR InstName U3
SYMBOL npn 688 448 M0
SYMATTR InstName Q3
SYMATTR Value 2N3904
SYMBOL npn 912 448 M0
SYMATTR InstName Q6
SYMATTR Value 2N3904
SYMBOL res 944 288 R0
SYMATTR InstName R3
SYMATTR Value 10k
SYMBOL res 704 320 R0
SYMATTR InstName R4
SYMATTR Value 10k
SYMBOL res 704 560 R0
SYMATTR InstName R9
SYMATTR Value 10k
SYMBOL res 640 544 M0
SYMATTR InstName R10
SYMATTR Value 470
SYMBOL npn -864 -304 R0
SYMATTR InstName Q7
SYMATTR Value 2N3904
SYMBOL res -848 -272 R90
WINDOW 0 0 56 VBottom 2
WINDOW 3 32 56 VTop 2
SYMATTR InstName R14
SYMATTR Value 1k
SYMBOL pnp -640 -304 M90
SYMATTR InstName Q9
SYMATTR Value 2N3906
SYMBOL npn -448 -304 R90
SYMATTR InstName Q10
SYMATTR Value 2N3904
SYMBOL res -752 -448 R0
SYMATTR InstName R11
SYMATTR Value 1k
TEXT -360 440 Left 2 !.tran 100m startup
TEXT 168 288 Left 2 !K1 L1 L2 L3 L4 0.999
