Version 4
SHEET 1 880 680
WIRE -272 -512 -512 -512
WIRE 144 -512 -272 -512
WIRE -512 -480 -512 -512
WIRE -112 -368 -176 -368
WIRE 144 -368 144 -512
WIRE 144 -368 -32 -368
WIRE -512 -336 -512 -400
WIRE -560 -272 -608 -272
WIRE -416 -272 -560 -272
WIRE -208 -272 -320 -272
WIRE 144 -272 144 -368
WIRE 144 -272 -144 -272
WIRE -512 -224 -512 -336
WIRE -368 -192 -368 -208
WIRE -320 -192 -368 -192
WIRE -304 -160 -464 -160
WIRE 144 -160 144 -272
WIRE 144 -160 -240 -160
WIRE -464 -80 -464 -160
WIRE -448 -80 -464 -80
WIRE -368 -80 -368 -192
WIRE 80 -80 -368 -80
WIRE 144 -80 144 -160
WIRE -368 -32 -368 -80
WIRE -288 -32 -304 -32
WIRE -224 -32 -288 -32
WIRE -176 -32 -224 -32
WIRE -16 -32 -112 -32
WIRE -288 -16 -288 -32
WIRE -176 48 -240 48
WIRE -112 48 -176 48
WIRE 192 48 -112 48
WIRE 432 48 384 48
WIRE 544 48 496 48
WIRE -368 64 -368 -32
WIRE -224 64 -224 -32
WIRE -176 112 -176 48
WIRE -368 128 -368 64
WIRE -336 128 -336 48
WIRE -336 128 -368 128
WIRE -16 128 -16 -32
WIRE 144 128 144 -80
WIRE 192 128 144 128
WIRE 432 128 384 128
WIRE 544 128 544 48
WIRE 656 128 544 128
WIRE -336 208 -336 128
WIRE -224 208 -224 144
WIRE -224 208 -240 208
WIRE -16 208 -224 208
WIRE 192 208 -16 208
WIRE 432 208 384 208
WIRE 544 208 544 128
WIRE 544 208 496 208
WIRE 576 208 544 208
WIRE 704 208 704 192
WIRE 704 208 656 208
WIRE -368 288 -368 128
WIRE -288 288 -288 272
WIRE -288 288 -304 288
WIRE -176 288 -176 192
WIRE -176 288 -288 288
WIRE -112 288 -112 128
FLAG 432 128 0
FLAG 480 128 0
FLAG 544 48 V5
FLAG 752 128 0
FLAG -176 -368 0
FLAG -560 -160 0
FLAG -608 -336 0
FLAG -688 -272 0
FLAG 144 -512 VPOE
FLAG -368 64 NEG
FLAG -272 -448 0
FLAG -608 -208 0
SYMBOL ind2 176 32 R0
SYMATTR InstName L1
SYMATTR Value 18µ
SYMATTR Type ind
SYMATTR SpiceLine Rser=90m
SYMBOL ind2 176 112 R0
SYMATTR InstName L2
SYMATTR Value 18µ
SYMATTR Type ind
SYMATTR SpiceLine Rser=90m
SYMBOL ind2 400 32 M0
SYMATTR InstName L3
SYMATTR Value 21.6µ
SYMATTR Type ind
SYMATTR SpiceLine Rser=90m
SYMBOL ind2 400 112 M0
SYMATTR InstName L4
SYMATTR Value 21.6µ
SYMATTR Type ind
SYMATTR SpiceLine Rser=90m
SYMBOL schottky 432 64 R270
WINDOW 0 32 32 VTop 2
WINDOW 3 0 32 VBottom 2
SYMATTR InstName D1
SYMATTR Value MBRS130L
SYMATTR Description Diode
SYMATTR Type diode
SYMBOL schottky 432 224 R270
WINDOW 0 32 32 VTop 2
WINDOW 3 0 32 VBottom 2
SYMATTR InstName D2
SYMATTR Value MBRS130L
SYMATTR Description Diode
SYMATTR Type diode
SYMBOL cap 544 112 R90
WINDOW 0 0 32 VBottom 2
WINDOW 3 32 32 VTop 2
SYMATTR InstName C1
SYMATTR Value 100µ
SYMBOL cap 144 -96 R90
WINDOW 0 0 32 VBottom 2
WINDOW 3 32 32 VTop 2
SYMATTR InstName C2
SYMATTR Value 100µ
SYMBOL npn -240 272 M270
SYMATTR InstName Q1
SYMATTR Value 2N4401
SYMBOL npn -240 -16 R90
SYMATTR InstName Q2
SYMATTR Value 2N4401
SYMBOL res -128 32 R0
SYMATTR InstName R3
SYMATTR Value 1k
SYMBOL res -32 112 R0
SYMATTR InstName R4
SYMATTR Value 1k
SYMBOL npn 656 192 R270
SYMATTR InstName Q3
SYMATTR Value 2N4401
SYMBOL res 672 192 R90
WINDOW 0 0 56 VBottom 2
WINDOW 3 32 56 VTop 2
SYMATTR InstName R5
SYMATTR Value 1.5k
SYMBOL diode -368 -48 M90
WINDOW 0 0 32 VBottom 2
WINDOW 3 32 32 VTop 2
SYMATTR InstName D3
SYMATTR Value 1N914
SYMBOL diode -368 304 R270
WINDOW 0 32 32 VTop 2
WINDOW 3 0 32 VBottom 2
SYMATTR InstName D5
SYMATTR Value 1N914
SYMBOL voltage -16 -368 R90
WINDOW 0 -32 56 VBottom 2
WINDOW 3 32 56 VTop 2
WINDOW 123 0 0 Left 0
WINDOW 39 -4 56 VBottom 2
SYMATTR InstName V1
SYMATTR Value 48
SYMATTR SpiceLine Rser=1
SYMBOL ind -464 -64 R270
WINDOW 0 32 56 VTop 2
WINDOW 3 5 56 VBottom 2
SYMATTR InstName L5
SYMATTR Value 100µ
SYMATTR SpiceLine Rser=100m
SYMBOL schottky -304 -144 R270
WINDOW 0 32 32 VTop 2
WINDOW 3 0 32 VBottom 2
SYMATTR InstName D4
SYMATTR Value MBRS1100
SYMATTR Description Diode
SYMATTR Type diode
SYMBOL pnp -416 -208 R270
SYMATTR InstName Q4
SYMATTR Value BSS63A
SYMBOL npn -464 -224 R90
SYMATTR InstName Q5
SYMATTR Value 2N4401
SYMBOL res -528 -496 R0
SYMATTR InstName R2
SYMATTR Value 15k
SYMBOL npn -512 -272 M270
SYMATTR InstName Q6
SYMATTR Value 2N3904
SYMBOL res -592 -288 R90
WINDOW 0 0 56 VBottom 2
WINDOW 3 32 56 VTop 2
SYMATTR InstName R6
SYMATTR Value 47k
SYMBOL zener -208 -288 M90
WINDOW 0 0 32 VBottom 2
WINDOW 3 32 32 VTop 2
SYMATTR InstName D6
SYMATTR Value UMZ5_1N
SYMATTR Description Diode
SYMATTR Type diode
SYMBOL res -336 -288 R0
SYMATTR InstName R1
SYMATTR Value 1k
SYMBOL cap -288 -512 R0
SYMATTR InstName C3
SYMATTR Value 100µ
SYMBOL cap -624 -272 R0
SYMATTR InstName C4
SYMATTR Value 1n
SYMBOL cap -112 272 R90
WINDOW 0 0 32 VBottom 2
WINDOW 3 32 32 VTop 2
SYMATTR InstName C5
SYMATTR Value 10n
SYMBOL cap -112 -48 R90
WINDOW 0 0 32 VBottom 2
WINDOW 3 32 32 VTop 2
SYMATTR InstName C6
SYMATTR Value 10n
SYMBOL res -208 48 M0
SYMATTR InstName R7
SYMATTR Value 47k
SYMBOL res -192 96 R0
SYMATTR InstName R8
SYMATTR Value 47k
TEXT -356 440 Left 2 !.tran 100m startup
TEXT 168 288 Left 2 !K1 L1 L2 L3 L4 0.999
